uncertain_grid_restoration/dss/ieee69/Loads.dss
! IEEE 69-Bus System Loads

New Load.Load_6 Bus1=6 Phases=3 kV=12.66 kW=2.6 kvar=2.2 Model=1 Vminpu=0.85
New Load.Load_7 Bus1=7 Phases=3 kV=12.66 kW=40.4 kvar=30.0 Model=1 Vminpu=0.85
New Load.Load_8 Bus1=8 Phases=3 kV=12.66 kW=75.0 kvar=54.0 Model=1 Vminpu=0.85
New Load.Load_9 Bus1=9 Phases=3 kV=12.66 kW=30.0 kvar=22.0 Model=1 Vminpu=0.85
New Load.Load_10 Bus1=10 Phases=3 kV=12.66 kW=28.0 kvar=19.0 Model=1 Vminpu=0.85
New Load.Load_11 Bus1=11 Phases=3 kV=12.66 kW=145.0 kvar=104.0 Model=1 Vminpu=0.85
New Load.Load_12 Bus1=12 Phases=3 kV=12.66 kW=145.0 kvar=104.0 Model=1 Vminpu=0.85
New Load.Load_13 Bus1=13 Phases=3 kV=12.66 kW=8.0 kvar=5.5 Model=1 Vminpu=0.85
New Load.Load_14 Bus1=14 Phases=3 kV=12.66 kW=8.0 kvar=5.5 Model=1 Vminpu=0.85
New Load.Load_16 Bus1=16 Phases=3 kV=12.66 kW=45.5 kvar=30.0 Model=1 Vminpu=0.85
New Load.Load_17 Bus1=17 Phases=3 kV=12.66 kW=60.0 kvar=35.0 Model=1 Vminpu=0.85
New Load.Load_18 Bus1=18 Phases=3 kV=12.66 kW=60.0 kvar=35.0 Model=1 Vminpu=0.85
New Load.Load_20 Bus1=20 Phases=3 kV=12.66 kW=1.0 kvar=0.6 Model=1 Vminpu=0.85
New Load.Load_21 Bus1=21 Phases=3 kV=12.66 kW=114.0 kvar=81.0 Model=1 Vminpu=0.85
New Load.Load_22 Bus1=22 Phases=3 kV=12.66 kW=5.0 kvar=3.5 Model=1 Vminpu=0.85
New Load.Load_24 Bus1=24 Phases=3 kV=12.66 kW=28.0 kvar=20.0 Model=1 Vminpu=0.85
New Load.Load_26 Bus1=26 Phases=3 kV=12.66 kW=14.0 kvar=10.0 Model=1 Vminpu=0.85
New Load.Load_27 Bus1=27 Phases=3 kV=12.66 kW=14.0 kvar=10.0 Model=1 Vminpu=0.85
New Load.Load_28 Bus1=28 Phases=3 kV=12.66 kW=26.0 kvar=18.6 Model=1 Vminpu=0.85
New Load.Load_29 Bus1=29 Phases=3 kV=12.66 kW=26.0 kvar=18.6 Model=1 Vminpu=0.85
New Load.Load_33 Bus1=33 Phases=3 kV=12.66 kW=14.0 kvar=10.0 Model=1 Vminpu=0.85
New Load.Load_34 Bus1=34 Phases=3 kV=12.66 kW=19.5 kvar=14.0 Model=1 Vminpu=0.85
New Load.Load_35 Bus1=35 Phases=3 kV=12.66 kW=6.0 kvar=4.0 Model=1 Vminpu=0.85
New Load.Load_36 Bus1=36 Phases=3 kV=12.66 kW=26.0 kvar=18.5 Model=1 Vminpu=0.85
New Load.Load_37 Bus1=37 Phases=3 kV=12.66 kW=26.0 kvar=18.5 Model=1 Vminpu=0.85
New Load.Load_39 Bus1=39 Phases=3 kV=12.66 kW=24.0 kvar=17.0 Model=1 Vminpu=0.85
New Load.Load_40 Bus1=40 Phases=3 kV=12.66 kW=24.0 kvar=17.0 Model=1 Vminpu=0.85
New Load.Load_41 Bus1=41 Phases=3 kV=12.66 kW=1.2 kvar=1.0 Model=1 Vminpu=0.85
New Load.Load_43 Bus1=43 Phases=3 kV=12.66 kW=6.0 kvar=4.3 Model=1 Vminpu=0.85
New Load.Load_45 Bus1=45 Phases=3 kV=12.66 kW=39.22 kvar=26.3 Model=1 Vminpu=0.85
New Load.Load_46 Bus1=46 Phases=3 kV=12.66 kW=39.22 kvar=26.3 Model=1 Vminpu=0.85
New Load.Load_48 Bus1=48 Phases=3 kV=12.66 kW=79.0 kvar=56.4 Model=1 Vminpu=0.85
New Load.Load_49 Bus1=49 Phases=3 kV=12.66 kW=384.7 kvar=274.5 Model=1 Vminpu=0.85
New Load.Load_50 Bus1=50 Phases=3 kV=12.66 kW=384.7 kvar=274.5 Model=1 Vminpu=0.85
New Load.Load_52 Bus1=52 Phases=3 kV=12.66 kW=6.0 kvar=4.3 Model=1 Vminpu=0.85
New Load.Load_53 Bus1=53 Phases=3 kV=12.66 kW=100.0 kvar=72.0 Model=1 Vminpu=0.85
New Load.Load_54 Bus1=54 Phases=3 kV=12.66 kW=100.0 kvar=72.0 Model=1 Vminpu=0.85
New Load.Load_55 Bus1=55 Phases=3 kV=12.66 kW=6.0 kvar=4.3 Model=1 Vminpu=0.85
New Load.Load_59 Bus1=59 Phases=3 kV=12.66 kW=100.0 kvar=72.0 Model=1 Vminpu=0.85
New Load.Load_61 Bus1=61 Phases=3 kV=12.66 kW=1244.0 kvar=888.0 Model=1 Vminpu=0.85
New Load.Load_62 Bus1=62 Phases=3 kV=12.66 kW=32.0 kvar=23.0 Model=1 Vminpu=0.85
New Load.Load_64 Bus1=64 Phases=3 kV=12.66 kW=227.0 kvar=162.0 Model=1 Vminpu=0.85
New Load.Load_65 Bus1=65 Phases=3 kV=12.66 kW=59.0 kvar=42.0 Model=1 Vminpu=0.85
New Load.Load_66 Bus1=66 Phases=3 kV=12.66 kW=18.0 kvar=13.0 Model=1 Vminpu=0.85
New Load.Load_67 Bus1=67 Phases=3 kV=12.66 kW=18.0 kvar=13.0 Model=1 Vminpu=0.85
New Load.Load_68 Bus1=68 Phases=3 kV=12.66 kW=28.0 kvar=20.0 Model=1 Vminpu=0.85
New Load.Load_69 Bus1=69 Phases=3 kV=12.66 kW=28.0 kvar=20.0 Model=1 Vminpu=0.85
